
  EPA STORM WATER MANAGEMENT MODEL - VERSION 5.2 (Build 5.2.4)
  PYSWMM TOOLKIT API - VERSION v1.0 (2023-11-27)
  ------------------------------------------------------------

  City of Ann Arbor Storm Water Model 
  10% AEP 12-Hour Design Storm (SCS/Alternating Block Distribution) 
  Developed in InfoSWMM w/EPA SWMM 5.0.022 version 
  
  ****************
  Analysis Options
  ****************
  Flow Units ............... CFS
  Process Models:
    Rainfall/Runoff ........ YES
    RDII ................... YES
    Snowmelt ............... NO
    Groundwater ............ NO
    Flow Routing ........... YES
    Ponding Allowed ........ NO
    Water Quality .......... YES
  Infiltration Method ...... GREEN_AMPT
  Flow Routing Method ...... DYNWAVE
  Surcharge Method ......... EXTRAN
  Starting Date ............ 07/05/2014 00:00:00
  Ending Date .............. 07/12/2014 00:00:00
  Antecedent Dry Days ...... 5.0
  Report Time Step ......... 00:01:00
  Wet Time Step ............ 00:01:00
  Dry Time Step ............ 00:05:00
  Routing Time Step ........ 5.00 sec
  Variable Time Step ....... YES
  Maximum Trials ........... 8
  Number of Threads ........ 1
  Head Tolerance ........... 0.005000 ft
  
  
  **********************           Volume        Volume
  Rainfall Dependent I/I        acre-feet      10^6 gal
  **********************        ---------     ---------
  Sewershed Rainfall ......        75.999        24.765
  RDII Produced ...........        10.346         3.371
  RDII Ratio ..............         0.136
  
  
  **************************        Volume         Depth
  Runoff Quantity Continuity     acre-feet        inches
  **************************     ---------       -------
  Total Precipitation ......        55.503         3.234
  Evaporation Loss .........         0.000         0.000
  Infiltration Loss ........        17.039         0.993
  Surface Runoff ...........        37.852         2.206
  Final Storage ............         0.633         0.037
  Continuity Error (%) .....        -0.037
  
  
  **************************           TSS
  Runoff Quality Continuity            lbs
  **************************    ----------
  Initial Buildup ..........      3394.520
  Surface Buildup ..........      2452.276
  Wet Deposition ...........         0.000
  Sweeping Removal .........         0.000
  Infiltration Loss ........         0.000
  BMP Removal ..............         0.000
  Surface Runoff ...........      2283.580
  Remaining Buildup ........      3563.216
  Continuity Error (%) .....         0.000
  
  
  **************************        Volume        Volume
  Flow Routing Continuity        acre-feet      10^6 gal
  **************************     ---------     ---------
  Dry Weather Inflow .......         0.000         0.000
  Wet Weather Inflow .......        37.852        12.335
  Groundwater Inflow .......         0.000         0.000
  RDII Inflow ..............        10.346         3.371
  External Inflow ..........         0.000         0.000
  External Outflow .........        31.188        10.163
  Flooding Loss ............        16.828         5.484
  Evaporation Loss .........         0.000         0.000
  Exfiltration Loss ........         0.000         0.000
  Initial Stored Volume ....         0.000         0.000
  Final Stored Volume ......         0.197         0.064
  Continuity Error (%) .....        -0.032
  
  
  **************************           TSS
  Quality Routing Continuity           lbs
  **************************    ----------
  Dry Weather Inflow .......         0.000
  Wet Weather Inflow .......      2283.600
  Groundwater Inflow .......         0.000
  RDII Inflow ..............         0.000
  External Inflow ..........         0.000
  External Outflow .........       776.170
  Flooding Loss ............       801.890
  Exfiltration Loss ........         0.000
  Mass Reacted .............       713.275
  Initial Stored Mass ......         0.000
  Final Stored Mass ........         0.030
  Continuity Error (%) .....        -0.340
  
  
  ***************************
  Time-Step Critical Elements
  ***************************
  None
  
  
  ********************************
  Highest Flow Instability Indexes
  ********************************
  All links are stable.
  
  
  *********************************
  Most Frequent Nonconverging Nodes
  *********************************
  Node ZOF1 (0.14%)
  Node 93-49868 (0.14%)
  Node 93-49919 (0.11%)
  
  
  *************************
  Routing Time Step Summary
  *************************
  Minimum Time Step           :     0.09 sec
  Average Time Step           :     5.00 sec
  Maximum Time Step           :     5.00 sec
  % of Time in Steady State   :     0.00
  Average Iterations per Step :     2.01
  % of Steps Not Converging   :     0.14
  Time Step Frequencies       :
      5.000 -  3.155 sec      :   100.00 %
      3.155 -  1.991 sec      :     0.00 %
      1.991 -  1.256 sec      :     0.00 %
      1.256 -  0.792 sec      :     0.00 %
      0.792 -  0.500 sec      :     0.00 %
  
  
  ***************************
  Subcatchment Runoff Summary
  ***************************
  
  ------------------------------------------------------------------------------------------------------------------------------
                            Total      Total      Total      Total     Imperv       Perv      Total       Total     Peak  Runoff
                           Precip      Runon       Evap      Infil     Runoff     Runoff     Runoff      Runoff   Runoff   Coeff
  Subcatchment                 in         in         in         in         in         in         in    10^6 gal      CFS
  ------------------------------------------------------------------------------------------------------------------------------
  102                        3.23       0.00       0.00       1.20       1.78       0.22       2.00        0.15    13.71   0.618
  103                        3.23       0.00       0.00       1.49       1.30       0.42       1.72        0.26    26.72   0.533
  115                        3.23       0.00       0.00       1.52       1.21       0.48       1.69        0.47    30.56   0.523
  120                        3.23       0.00       0.00       1.21       1.65       0.34       1.99        0.36    33.95   0.616
  1472                       3.23       0.00       0.00       0.94       2.03       0.23       2.26        0.20    17.63   0.698
  1497                       3.23       0.00       0.00       0.35       2.73       0.10       2.83        1.15    90.58   0.876
  1499                       3.23       0.00       0.00       0.11       3.02       0.05       3.06        2.10   152.69   0.947
  1503                       3.23       0.00       0.00       0.64       2.35       0.20       2.55        0.09     7.70   0.789
  1506                       3.23       0.00       0.00       1.33       1.62       0.25       1.87        0.52    48.18   0.578
  1570                       3.23       0.00       0.00       1.69       1.02       0.51       1.52        0.32    33.07   0.470
  1648                       3.23       0.00       0.00       1.50       1.43       0.27       1.70        0.13    11.82   0.527
  1736                       3.23       0.00       0.00       1.22       1.75       0.23       1.98        0.81    73.94   0.612
  1780                       3.23       0.00       0.00       1.64       1.27       0.30       1.57        0.10     9.56   0.485
  54                         3.23       0.00       0.00       0.34       2.76       0.08       2.85        2.81   215.64   0.880
  57                         3.23       0.00       0.00       2.00       1.02       0.20       1.22        0.34    23.52   0.376
  62                         3.23       0.00       0.00       1.58       1.14       0.49       1.63        0.47    49.84   0.504
  93                         3.23       0.00       0.00       1.20       1.71       0.29       2.01        0.45    43.10   0.621
  94                         3.23       0.00       0.00       1.44       1.11       0.66       1.78        0.62    65.63   0.549
  97                         3.23       0.00       0.00       1.34       1.56       0.31       1.87        0.99    96.09   0.577
  
  
  ****************************
  Subcatchment Washoff Summary
  ****************************
  
  ----------------------------------
                                 TSS
  Subcatchment                   lbs
  ----------------------------------
  102                         31.369
  103                         53.369
  115                         96.213
  120                         73.615
  1472                        38.658
  1497                       195.887
  1499                       338.613
  1503                        16.999
  1506                       104.748
  1570                        66.048
  1648                        25.499
  1736                       163.787
  1780                        20.169
  54                         476.663
  57                          68.092
  62                          95.136
  93                          91.153
  94                         125.251
  97                         202.311
  ----------------------------------
  System                    2283.580
  
  
  ******************
  Node Depth Summary
  ******************
  
  ---------------------------------------------------------------------------------
                                 Average  Maximum  Maximum  Time of Max    Reported
                                   Depth    Depth      HGL   Occurrence   Max Depth
  Node                 Type         Feet     Feet     Feet  days hr:min        Feet
  ---------------------------------------------------------------------------------
  J13                  JUNCTION     0.02     1.00   914.17     0  06:01        1.00
  J14                  JUNCTION     0.03     1.00   902.00     0  06:03        1.00
  J15                  JUNCTION     0.05     1.00   882.00     0  05:46        1.00
  J18                  JUNCTION     0.12     1.00   875.22     0  05:44        1.00
  J19                  JUNCTION     0.05     0.41   858.69     0  08:55        0.41
  J22                  JUNCTION     0.01     0.46   904.46     0  06:21        0.46
  J23                  JUNCTION     0.03     1.00   869.00     0  06:05        1.00
  J24                  JUNCTION     0.29     1.00   847.00     0  06:02        1.00
  J25                  JUNCTION     0.18     0.48   832.98     1  10:52        0.48
  J26                  JUNCTION     0.29     0.79   822.29     1  11:14        0.79
  ZOF1                 OUTFALL      0.00     0.00   810.00     0  00:00        0.00
  93-49743             STORAGE      0.36    10.13   884.35     0  06:36       10.13
  93-49868             STORAGE      0.12   165.72  1078.89     0  06:04      159.22
  93-49919             STORAGE      0.28   337.12  1205.12     0  06:05      337.12
  93-49921             STORAGE      0.95     5.78   851.78     0  13:25        5.78
  93-50074             STORAGE      0.44     6.35   864.63     0  08:45        6.35
  93-50076             STORAGE      0.44     1.54   834.04     1  10:52        1.54
  93-50077             STORAGE      0.60     3.53   813.53     0  07:43        3.53
  93-50081             STORAGE      0.56     1.85   823.35     1  11:13        1.85
  93-50225             STORAGE      0.16     6.10   887.10     0  07:27        6.10
  93-90357             STORAGE      0.04     4.56   908.56     0  06:21        4.56
  93-90358             STORAGE      0.09     5.65   906.65     0  06:35        5.65
  
  
  *******************
  Node Inflow Summary
  *******************
  
  -------------------------------------------------------------------------------------------------
                                  Maximum  Maximum                  Lateral       Total        Flow
                                  Lateral    Total  Time of Max      Inflow      Inflow     Balance
                                   Inflow   Inflow   Occurrence      Volume      Volume       Error
  Node                 Type           CFS      CFS  days hr:min    10^6 gal    10^6 gal     Percent
  -------------------------------------------------------------------------------------------------
  J13                  JUNCTION      0.00    68.82     0  06:04           0       0.616      -0.003
  J14                  JUNCTION      0.00    11.24     0  06:35           0       0.888      -0.008
  J15                  JUNCTION      0.00    31.29     0  06:05           0        1.54      -0.009
  J18                  JUNCTION      0.00    15.76     0  06:36           0        2.99       0.000
  J19                  JUNCTION      0.00    11.50     0  08:50           0         3.5      -0.070
  J22                  JUNCTION      0.00    10.57     0  06:21           0       0.479      -0.004
  J23                  JUNCTION      0.00   102.00     0  06:05           0        1.87      -0.050
  J24                  JUNCTION      0.00    11.41     0  13:25           0           9       0.002
  J25                  JUNCTION      0.00     5.37     1  10:52           0        6.31      -0.004
  J26                  JUNCTION      0.00     5.37     1  11:13           0         6.4       0.003
  ZOF1                 OUTFALL       0.00     9.81     0  07:43           0        10.2       0.000
  93-49743             STORAGE     159.96   159.96     0  06:05        2.99        2.99       0.017
  93-49868             STORAGE      65.63    65.63     0  06:05       0.616       0.616      -0.082
  93-49919             STORAGE     113.72   115.09     0  06:04        1.19        1.94       0.084
  93-49921             STORAGE     202.67   227.26     0  06:05        3.86        9.02       0.024
  93-50074             STORAGE     133.68   138.63     0  06:05         1.6         3.5      -0.074
  93-50076             STORAGE      23.52    28.14     0  06:05       0.335        6.34      -0.004
  93-50077             STORAGE     215.74   219.86     0  06:05        3.77        10.2       0.004
  93-50081             STORAGE       7.70     8.53     0  06:05      0.0928         6.4      -0.001
  93-50225             STORAGE      26.72    42.80     0  06:05       0.262        1.47      -0.134
  93-90357             STORAGE      46.78    46.78     0  06:05       0.479       0.479       0.039
  93-90358             STORAGE      48.18    56.63     0  06:05       0.515       0.887      -0.070
  
  
  **********************
  Node Surcharge Summary
  **********************
  
  Surcharging occurs when water rises above the top of the highest conduit.
  ---------------------------------------------------------------------
                                               Max. Height   Min. Depth
                                   Hours       Above Crown    Below Rim
  Node                 Type      Surcharged           Feet         Feet
  ---------------------------------------------------------------------
  J13                  JUNCTION        0.78          0.000        0.000
  J14                  JUNCTION        2.01          0.000        0.000
  J15                  JUNCTION        4.41          0.000        0.000
  J18                  JUNCTION        6.17          0.000        0.000
  J23                  JUNCTION        0.65          0.000        0.000
  J24                  JUNCTION       27.50          0.000        0.000
  93-49743             STORAGE         7.88          9.125        4.835
  93-49868             STORAGE         1.21        164.716        0.000
  93-49919             STORAGE         5.86        336.124        0.000
  93-50074             STORAGE        15.26          5.348        1.854
  93-50076             STORAGE        35.09          0.544        8.456
  93-50077             STORAGE        40.79          2.535        6.465
  93-50081             STORAGE        40.40          0.850        8.150
  93-50225             STORAGE         4.84          4.695       13.905
  93-90357             STORAGE         1.55          3.560        5.440
  93-90358             STORAGE         3.07          4.646        4.354
  
  
  *********************
  Node Flooding Summary
  *********************
  
  Flooding refers to all water that overflows a node, whether it ponds or not.
  --------------------------------------------------------------------------
                                                             Total   Maximum
                                 Maximum   Time of Max       Flood    Ponded
                        Hours       Rate    Occurrence      Volume     Depth
  Node                 Flooded       CFS   days hr:min    10^6 gal      Feet
  --------------------------------------------------------------------------
  J13                     0.78     57.63      0  06:04       0.244     0.000
  J14                     2.01      3.97      0  06:44       0.155     0.000
  J15                     4.41     31.19      0  06:05       0.800     0.000
  J18                     6.16     11.14      0  06:37       1.088     0.000
  J23                     0.65     83.19      0  06:05       0.204     0.000
  J24                    27.49      5.87      0  13:25       2.991     0.000
  
  
  **********************
  Storage Volume Summary
  **********************
  
  ------------------------------------------------------------------------------------------------
                         Average    Avg   Evap  Exfil     Maximum    Max    Time of Max    Maximum
                          Volume   Pcnt   Pcnt   Pcnt      Volume   Pcnt     Occurrence    Outflow
  Storage Unit          1000 ft³   Full   Loss   Loss    1000 ft³   Full    days hr:min        CFS
  ------------------------------------------------------------------------------------------------
  93-49743                 2.589    0.9    0.0    0.0     138.446   50.3       0  06:36      15.76
  93-49868                 0.051    0.4    0.0    0.0      12.966  100.0       0  06:04      68.82
  93-49919                 0.610    1.3    0.0    0.0      45.480  100.0       0  06:05     119.67
  93-49921                88.631    7.9    0.0    0.0     575.069   51.2       0  13:25      11.41
  93-50074                10.471    3.7    0.0    0.0     188.676   66.2       0  08:45      11.50
  93-50076                36.704    3.4    0.0    0.0     130.303   12.0       1  10:52       5.37
  93-50077                46.270    4.1    0.0    0.0     286.697   25.6       0  07:43       9.81
  93-50081                 0.628    2.2    0.0    0.0       2.815   10.0       1  11:13       5.37
  93-50225                 1.441    0.3    0.0    0.0      68.040   12.0       0  07:27      11.77
  93-90357                 0.146    0.2    0.0    0.0      25.021   33.8       0  06:21      10.57
  93-90358                 0.393    0.3    0.0    0.0      41.276   29.3       0  06:35      11.24
  
  
  ***********************
  Outfall Loading Summary
  ***********************
  
  -------------------------------------------------------------------------
                         Flow       Avg       Max       Total         Total
                         Freq      Flow      Flow      Volume           TSS
  Outfall Node           Pcnt       CFS       CFS    10^6 gal           lbs
  -------------------------------------------------------------------------
  ZOF1                  99.70      2.25      9.81      10.162       776.170
  -------------------------------------------------------------------------
  System                99.70      2.25      9.81      10.162       776.170
  
  
  ********************
  Link Flow Summary
  ********************
  
  -----------------------------------------------------------------------------
                                 Maximum  Time of Max   Maximum    Max/    Max/
                                  |Flow|   Occurrence   |Veloc|    Full    Full
  Link                 Type          CFS  days hr:min    ft/sec    Flow   Depth
  -----------------------------------------------------------------------------
  C08                  CONDUIT      5.76     0  05:43      7.47    1.04    1.00
  C09                  CONDUIT     15.76     0  06:44     21.07    0.98    1.00
  C10                  CONDUIT      5.91     1  09:35      9.81    1.06    1.00
  C11                  CONDUIT      5.37     1  10:52      8.60    0.47    0.74
  C12                  CONDUIT      5.37     1  11:14      7.24    0.97    0.90
  C18                  CONDUIT      9.75     0  06:01     12.68    0.99    1.00
  C19                  CONDUIT      8.46     0  06:03     10.98    1.02    1.00
  C21                  CONDUIT     22.38     0  06:05     28.49    4.62    1.00
  C22                  CONDUIT     10.57     0  06:21      9.76    0.23    0.66
  C95-53307            CONDUIT     11.40     0  08:55      3.20    0.01    0.47
  OR34                 ORIFICE     68.82     0  06:04                          
  OR35                 ORIFICE     11.24     0  06:35                          
  OR36                 ORIFICE     11.77     0  07:27                          
  OR38                 ORIFICE     11.50     0  08:50                          
  OR39                 ORIFICE     15.76     0  06:36                          
  OR43                 ORIFICE     10.57     0  06:21                          
  OR44                 ORIFICE    102.00     0  06:05                          
  OR45                 ORIFICE     11.41     0  13:25                          
  OR46                 ORIFICE      5.37     1  10:52                          
  OR47                 ORIFICE      5.37     1  11:13                          
  OR48                 ORIFICE      9.81     0  07:43                          
  
  
  ***************************
  Flow Classification Summary
  ***************************
  
  -------------------------------------------------------------------------------------
                      Adjusted    ---------- Fraction of Time in Flow Class ---------- 
                       /Actual         Up    Down  Sub   Sup   Up    Down  Norm  Inlet 
  Conduit               Length    Dry  Dry   Dry   Crit  Crit  Crit  Crit  Ltd   Ctrl  
  -------------------------------------------------------------------------------------
  C08                     1.00   0.00  0.04  0.00  0.49  0.47  0.00  0.00  0.42  0.00
  C09                     1.00   0.00  0.01  0.00  0.92  0.06  0.00  0.00  0.97  0.00
  C10                     1.00   0.00  0.00  0.00  0.31  0.69  0.00  0.00  0.80  0.00
  C11                     1.00   0.00  0.00  0.00  0.04  0.96  0.00  0.00  1.00  0.00
  C12                     1.00   0.00  0.00  0.00  0.02  0.98  0.00  0.00  0.31  0.00
  C18                     1.00   0.00  0.00  0.00  0.98  0.02  0.00  0.00  0.16  0.00
  C19                     1.00   0.00  0.47  0.00  0.49  0.04  0.00  0.00  0.98  0.00
  C21                     1.00   0.00  0.00  0.00  0.56  0.44  0.00  0.00  0.09  0.00
  C22                     1.30   0.00  0.75  0.00  0.23  0.02  0.00  0.00  1.00  0.00
  C95-53307               1.00   0.00  0.11  0.00  0.87  0.02  0.00  0.00  0.98  0.00
  
  
  *************************
  Conduit Surcharge Summary
  *************************
  
  ----------------------------------------------------------------------------
                                                           Hours        Hours 
                         --------- Hours Full --------   Above Full   Capacity
  Conduit                Both Ends  Upstream  Dnstream   Normal Flow   Limited
  ----------------------------------------------------------------------------
  C08                         6.16      6.16     15.26      0.08         0.01
  C09                         0.65      0.65     34.89      0.01         0.01
  C10                        23.97     27.49     35.08      1.82         0.01
  C11                         0.01      0.01     40.39      0.01         0.01
  C12                         0.01      0.01     40.78      0.01         0.01
  C18                         0.78      0.78      3.07      0.01         0.01
  C19                         2.01      2.01      5.45      0.03         0.01
  C21                         4.41      4.41      5.86      0.28         0.01
  C22                         0.01      0.01      4.84      0.01         0.01
  
  
  ***************************
  Link Pollutant Load Summary
  ***************************
  
  ----------------------------------
                                 TSS
  Link                           lbs
  ----------------------------------
  C08                        169.297
  C09                        322.445
  C10                        482.066
  C11                        453.335
  C12                        468.220
  C18                         75.443
  C19                        146.070
  C21                        155.912
  C22                         96.136
  C95-53307                  414.664
  OR34                       124.927
  OR35                       177.032
  OR36                       284.365
  OR38                       396.849
  OR39                       360.857
  OR43                        96.164
  OR44                       363.657
  OR45                       814.449
  OR46                       453.283
  OR47                       468.293
  OR48                       776.170
  

  Analysis begun on:  Fri May 10 14:45:28 2024
  Analysis ended on:  Fri May 10 14:45:43 2024
  Total elapsed time: 00:00:15