
  OWA STORM WATER MANAGEMENT MODEL - VERSION v5.2.3 (OWA 2023-06-06)
  ------------------------------------------------------------

  City of Ann Arbor Storm Water Model 
  10% AEP 12-Hour Design Storm (SCS/Alternating Block Distribution) 
  Developed in InfoSWMM w/EPA SWMM 5.0.022 version 
  
  ****************
  Analysis Options
  ****************
  Flow Units ............... CFS
  Process Models:
    Rainfall/Runoff ........ YES
    RDII ................... YES
    Snowmelt ............... NO
    Groundwater ............ NO
    Flow Routing ........... YES
    Ponding Allowed ........ NO
    Water Quality .......... YES
  Infiltration Method ...... GREEN_AMPT
  Flow Routing Method ...... DYNWAVE
  Surcharge Method ......... EXTRAN
  Starting Date ............ 07/05/2014 00:00:00
  Ending Date .............. 07/12/2014 00:00:00
  Antecedent Dry Days ...... 5.0
  Report Time Step ......... 00:01:00
  Wet Time Step ............ 00:01:00
  Dry Time Step ............ 00:05:00
  Routing Time Step ........ 5.00 sec
  Variable Time Step ....... YES
  Maximum Trials ........... 8
  Number of Threads ........ 1
  Head Tolerance ........... 0.005000 ft
  
  
  **********************           Volume        Volume
  Rainfall Dependent I/I        acre-feet      10^6 gal
  **********************        ---------     ---------
  Sewershed Rainfall ......       237.359        77.347
  RDII Produced ...........        34.550        11.259
  RDII Ratio ..............         0.146
  