
  EPA STORM WATER MANAGEMENT MODEL - VERSION 5.2 (Build 5.2.4)
  PYSWMM TOOLKIT API - VERSION v1.0 (2023-11-27)
  ------------------------------------------------------------

  City of Ann Arbor Storm Water Model 
  10% AEP 12-Hour Design Storm (SCS/Alternating Block Distribution) 
  Developed in InfoSWMM w/EPA SWMM 5.0.022 version 
  
  ****************
  Analysis Options
  ****************
  Flow Units ............... CFS
  Process Models:
    Rainfall/Runoff ........ YES
    RDII ................... YES
    Snowmelt ............... NO
    Groundwater ............ NO
    Flow Routing ........... YES
    Ponding Allowed ........ NO
    Water Quality .......... YES
  Infiltration Method ...... GREEN_AMPT
  Flow Routing Method ...... DYNWAVE
  Surcharge Method ......... EXTRAN
  Starting Date ............ 07/05/2014 00:00:00
  Ending Date .............. 07/12/2014 00:00:00
  Antecedent Dry Days ...... 5.0
  Report Time Step ......... 00:01:00
  Wet Time Step ............ 00:01:00
  Dry Time Step ............ 00:05:00
  Routing Time Step ........ 5.00 sec
  Variable Time Step ....... YES
  Maximum Trials ........... 8
  Number of Threads ........ 1
  Head Tolerance ........... 0.005000 ft
  
  
  **********************           Volume        Volume
  Rainfall Dependent I/I        acre-feet      10^6 gal
  **********************        ---------     ---------
  Sewershed Rainfall ......       102.930        33.541
  RDII Produced ...........        14.386         4.688
  RDII Ratio ..............         0.140
  
  
  **************************        Volume         Depth
  Runoff Quantity Continuity     acre-feet        inches
  **************************     ---------       -------
  Total Precipitation ......        75.172         4.380
  Evaporation Loss .........         0.000         0.000
  Infiltration Loss ........        19.043         1.110
  Surface Runoff ...........        55.523         3.235
  Final Storage ............         0.633         0.037
  Continuity Error (%) .....        -0.035
  
  
  **************************           TSS
  Runoff Quality Continuity            lbs
  **************************    ----------
  Initial Buildup ..........      3394.520
  Surface Buildup ..........      2951.435
  Wet Deposition ...........         0.000
  Sweeping Removal .........         0.000
  Infiltration Loss ........         0.000
  BMP Removal ..............         0.000
  Surface Runoff ...........      2807.336
  Remaining Buildup ........      3538.618
  Continuity Error (%) .....         0.000
  
  
  **************************        Volume        Volume
  Flow Routing Continuity        acre-feet      10^6 gal
  **************************     ---------     ---------
  Dry Weather Inflow .......         0.000         0.000
  Wet Weather Inflow .......        55.523        18.093
  Groundwater Inflow .......         0.000         0.000
  RDII Inflow ..............        14.386         4.688
  External Inflow ..........         0.000         0.000
  External Outflow .........        38.845        12.658
  Flooding Loss ............        29.649         9.662
  Evaporation Loss .........         0.000         0.000
  Exfiltration Loss ........         0.000         0.000
  Initial Stored Volume ....         0.000         0.000
  Final Stored Volume ......         0.206         0.067
  Continuity Error (%) .....         1.730
  
  
  **************************           TSS
  Quality Routing Continuity           lbs
  **************************    ----------
  Dry Weather Inflow .......         0.000
  Wet Weather Inflow .......      2807.366
  Groundwater Inflow .......         0.000
  RDII Inflow ..............         0.000
  External Inflow ..........         0.000
  External Outflow .........       765.930
  Flooding Loss ............      1174.424
  Exfiltration Loss ........         0.000
  Mass Reacted .............       817.808
  Initial Stored Mass ......         0.000
  Final Stored Mass ........         0.027
  Continuity Error (%) .....         1.752
  
  
  *************************
  Highest Continuity Errors
  *************************
  Node 93-50074 (9.23%)
  
  
  ***************************
  Time-Step Critical Elements
  ***************************
  None
  
  
  ********************************
  Highest Flow Instability Indexes
  ********************************
  All links are stable.
  
  
  *********************************
  Most Frequent Nonconverging Nodes
  *********************************
  Node ZOF1 (0.23%)
  Node 93-49868 (0.22%)
  Node 93-49919 (0.18%)
  Node 93-50074 (0.02%)
  
  
  *************************
  Routing Time Step Summary
  *************************
  Minimum Time Step           :     0.04 sec
  Average Time Step           :     5.00 sec
  Maximum Time Step           :     5.00 sec
  % of Time in Steady State   :     0.00
  Average Iterations per Step :     2.02
  % of Steps Not Converging   :     0.23
  Time Step Frequencies       :
      5.000 -  3.155 sec      :   100.00 %
      3.155 -  1.991 sec      :     0.00 %
      1.991 -  1.256 sec      :     0.00 %
      1.256 -  0.792 sec      :     0.00 %
      0.792 -  0.500 sec      :     0.00 %
  
  
  ***************************
  Subcatchment Runoff Summary
  ***************************
  
  ------------------------------------------------------------------------------------------------------------------------------
                            Total      Total      Total      Total     Imperv       Perv      Total       Total     Peak  Runoff
                           Precip      Runon       Evap      Infil     Runoff     Runoff     Runoff      Runoff   Runoff   Coeff
  Subcatchment                 in         in         in         in         in         in         in    10^6 gal      CFS
  ------------------------------------------------------------------------------------------------------------------------------
  102                        4.38       0.00       0.00       1.37       2.42       0.56       2.98        0.23    21.98   0.680
  103                        4.38       0.00       0.00       1.68       1.77       0.90       2.68        0.41    43.33   0.611
  115                        4.38       0.00       0.00       1.63       1.64       1.08       2.72        0.76    51.28   0.622
  120                        4.38       0.00       0.00       1.37       2.25       0.74       2.98        0.54    53.12   0.681
  1472                       4.38       0.00       0.00       1.05       2.77       0.53       3.30        0.29    26.81   0.753
  1497                       4.38       0.00       0.00       0.38       3.72       0.23       3.95        1.60   128.56   0.901
  1499                       4.38       0.00       0.00       0.12       4.11       0.09       4.20        2.88   213.39   0.959
  1503                       4.38       0.00       0.00       0.68       3.20       0.45       3.65        0.13    11.32   0.834
  1506                       4.38       0.00       0.00       1.52       2.20       0.62       2.83        0.78    78.50   0.646
  1570                       4.38       0.00       0.00       1.89       1.38       1.09       2.47        0.53    56.54   0.565
  1648                       4.38       0.00       0.00       1.72       1.94       0.69       2.64        0.19    19.97   0.603
  1736                       4.38       0.00       0.00       1.40       2.38       0.58       2.95        1.20   118.24   0.674
  1780                       4.38       0.00       0.00       1.87       1.73       0.75       2.48        0.16    16.63   0.567
  54                         4.38       0.00       0.00       0.38       3.76       0.19       3.95        3.90   307.66   0.902
  57                         4.38       0.00       0.00       2.30       1.38       0.68       2.06        0.57    40.33   0.471
  62                         4.38       0.00       0.00       1.69       1.56       1.11       2.67        0.77    82.99   0.609
  93                         4.38       0.00       0.00       1.33       2.33       0.69       3.02        0.67    67.53   0.690
  94                         4.38       0.00       0.00       1.60       1.51       1.25       2.76        0.96   101.04   0.630
  97                         4.38       0.00       0.00       1.50       2.12       0.74       2.85        1.52   155.59   0.652
  
  
  ****************************
  Subcatchment Washoff Summary
  ****************************
  
  ----------------------------------
                                 TSS
  Subcatchment                   lbs
  ----------------------------------
  102                         37.756
  103                         72.172
  115                        133.328
  120                         88.985
  1472                        44.134
  1497                       219.681
  1499                       379.515
  1503                        19.104
  1506                       132.654
  1570                        98.745
  1648                        34.720
  1736                       198.737
  1780                        29.329
  54                         534.005
  57                         115.398
  62                         135.853
  93                         109.784
  94                         165.786
  97                         257.648
  ----------------------------------
  System                    2807.336
  
  
  ******************
  Node Depth Summary
  ******************
  
  ---------------------------------------------------------------------------------
                                 Average  Maximum  Maximum  Time of Max    Reported
                                   Depth    Depth      HGL   Occurrence   Max Depth
  Node                 Type         Feet     Feet     Feet  days hr:min        Feet
  ---------------------------------------------------------------------------------
  J13                  JUNCTION     0.02     1.00   914.17     0  05:56        1.00
  J14                  JUNCTION     0.03     1.00   902.00     0  05:59        1.00
  J15                  JUNCTION     0.06     1.00   882.00     0  05:34        1.00
  J18                  JUNCTION     0.14     1.00   875.22     0  05:33        1.00
  J19                  JUNCTION     0.06     0.47   858.75     0  06:43        0.47
  J22                  JUNCTION     0.01     0.52   904.52     0  06:24        0.52
  J23                  JUNCTION     0.04     1.00   869.00     0  06:01        1.00
  J24                  JUNCTION     0.33     1.00   847.00     0  05:56        1.00
  J25                  JUNCTION     0.20     0.49   832.99     1  16:43        0.49
  J26                  JUNCTION     0.37     1.00   822.50     0  06:07        1.00
  ZOF1                 OUTFALL      0.00     0.00   810.00     0  00:00        0.00
  93-49743             STORAGE      0.58    13.75   887.97     0  06:42       13.75
  93-49868             STORAGE      0.32   376.26  1289.43     0  06:05      376.14
  93-49919             STORAGE      0.69   777.44  1645.44     0  06:05      777.44
  93-49921             STORAGE      1.22     6.39   852.39     0  13:50        6.39
  93-50074             STORAGE      0.95   147.56  1005.84     0  06:39       81.28
  93-50076             STORAGE      0.52     1.58   834.08     1  16:43        1.58
  93-50077             STORAGE      0.85     4.84   814.84     0  08:07        4.84
  93-50081             STORAGE      0.71     2.53   824.03     0  06:17        2.53
  93-50225             STORAGE      0.24     7.27   888.27     0  07:57        7.27
  93-90357             STORAGE      0.07     7.08   911.08     0  06:24        7.08
  93-90358             STORAGE      0.13     6.86   907.86     0  06:34        6.86
  
  
  *******************
  Node Inflow Summary
  *******************
  
  -------------------------------------------------------------------------------------------------
                                  Maximum  Maximum                  Lateral       Total        Flow
                                  Lateral    Total  Time of Max      Inflow      Inflow     Balance
                                   Inflow   Inflow   Occurrence      Volume      Volume       Error
  Node                 Type           CFS      CFS  days hr:min    10^6 gal    10^6 gal     Percent
  -------------------------------------------------------------------------------------------------
  J13                  JUNCTION      0.00   101.07     0  06:05           0       0.957      -0.005
  J14                  JUNCTION      0.00    12.63     0  06:34           0        1.22      -0.008
  J15                  JUNCTION      0.00    47.14     0  06:05           0        2.25       0.003
  J18                  JUNCTION      0.00    28.42     0  06:40           0        4.42       0.003
  J19                  JUNCTION      0.00    16.20     0  06:40           0        3.87      -0.028
  J22                  JUNCTION      0.00    13.37     0  06:24           0       0.757      -0.002
  J23                  JUNCTION      0.00   145.43     0  06:05           0        2.56      -0.010
  J24                  JUNCTION      0.00    12.11     0  13:50           0        11.3       0.001
  J25                  JUNCTION      0.00     5.44     1  16:43           0        7.53      -0.001
  J26                  JUNCTION      0.00     6.45     0  06:17           0        7.66       0.003
  ZOF1                 OUTFALL       0.00    11.47     0  08:07           0        12.7       0.000
  93-49743             STORAGE     259.44   259.44     0  06:05        4.42        4.42       0.037
  93-49868             STORAGE     101.04   101.04     0  06:05       0.957       0.957      -0.079
  93-49919             STORAGE     182.40   182.40     0  06:05        1.81        2.74       0.053
  93-49921             STORAGE     296.62   313.08     0  06:05        5.44        11.3       0.007
  93-50074             STORAGE     196.09   200.71     0  06:05        2.28        4.27      10.166
  93-50076             STORAGE      40.33    45.30     0  06:05       0.568        7.56      -0.005
  93-50077             STORAGE     307.84   313.10     0  06:05        5.23        12.7       0.009
  93-50081             STORAGE      11.32    12.91     0  06:05       0.133        7.66      -0.000
  93-50225             STORAGE      43.33    61.19     0  06:05       0.408        2.07      -0.115
  93-90357             STORAGE      78.52    78.52     0  06:05       0.757       0.757       0.047
  93-90358             STORAGE      78.50    86.46     0  06:05       0.779        1.22      -0.037
  
  
  **********************
  Node Surcharge Summary
  **********************
  
  Surcharging occurs when water rises above the top of the highest conduit.
  ---------------------------------------------------------------------
                                               Max. Height   Min. Depth
                                   Hours       Above Crown    Below Rim
  Node                 Type      Surcharged           Feet         Feet
  ---------------------------------------------------------------------
  J13                  JUNCTION        1.01          0.000        0.000
  J14                  JUNCTION        2.86          0.000        0.000
  J15                  JUNCTION        6.01          0.000        0.000
  J18                  JUNCTION        9.22          0.000        0.000
  J23                  JUNCTION        0.97          0.000        0.000
  J24                  JUNCTION       33.59          0.000        0.000
  J26                  JUNCTION       35.86          0.000        0.000
  93-49743             STORAGE        11.36         12.752        1.208
  93-49868             STORAGE         1.46        375.265        0.000
  93-49919             STORAGE         7.65        776.435        0.000
  93-50074             STORAGE        22.81        146.562        0.000
  93-50076             STORAGE        44.48          0.575        8.425
  93-50077             STORAGE        47.90          3.835        5.165
  93-50081             STORAGE        47.37          1.530        7.470
  93-50225             STORAGE         6.49          5.868       12.732
  93-90357             STORAGE         2.28          6.081        2.919
  93-90358             STORAGE         4.01          5.863        3.137
  
  
  *********************
  Node Flooding Summary
  *********************
  
  Flooding refers to all water that overflows a node, whether it ponds or not.
  --------------------------------------------------------------------------
                                                             Total   Maximum
                                 Maximum   Time of Max       Flood    Ponded
                        Hours       Rate    Occurrence      Volume     Depth
  Node                 Flooded       CFS   days hr:min    10^6 gal      Feet
  --------------------------------------------------------------------------
  J13                     1.01     93.10      0  06:05       0.520     0.000
  J14                     2.86      5.57      0  06:40       0.307     0.000
  J15                     6.01     47.07      0  06:05       1.320     0.000
  J18                     9.22     27.51      0  06:40       2.430     0.000
  J23                     0.97    130.11      0  06:05       0.569     0.000
  J24                    33.58      6.61      0  13:50       4.289     0.000
  J26                    35.84      1.68      0  06:20       0.226     0.000
  
  
  **********************
  Storage Volume Summary
  **********************
  
  ------------------------------------------------------------------------------------------------
                         Average    Avg   Evap  Exfil     Maximum    Max    Time of Max    Maximum
                          Volume   Pcnt   Pcnt   Pcnt      Volume   Pcnt     Occurrence    Outflow
  Storage Unit          1000 ft³   Full   Loss   Loss    1000 ft³   Full    days hr:min        CFS
  ------------------------------------------------------------------------------------------------
  93-49743                 5.891    2.1    0.0    0.0     237.000   86.0       0  06:42      18.63
  93-49868                 0.065    0.5    0.0    0.0      12.966  100.0       0  06:01     101.07
  93-49919                 0.731    1.6    0.0    0.0      45.480  100.0       0  06:01     182.41
  93-49921               116.497   10.4    0.0    0.0     647.350   57.7       0  13:50      12.11
  93-50074                22.948    8.0    0.0    0.0     285.154  100.0       0  06:39      23.00
  93-50076                43.535    4.0    0.0    0.0     133.105   12.2       1  16:43       5.44
  93-50077                67.325    6.0    0.0    0.0     411.509   36.8       0  08:07      11.47
  93-50081                 0.920    3.3    0.0    0.0       4.635   16.4       0  06:17       6.45
  93-50225                 2.565    0.5    0.0    0.0     101.962   18.0       0  07:57      13.06
  93-90357                 0.352    0.5    0.0    0.0      47.761   64.5       0  06:24      13.37
  93-90358                 0.764    0.5    0.0    0.0      65.870   46.8       0  06:34      12.63
  
  
  ***********************
  Outfall Loading Summary
  ***********************
  
  -------------------------------------------------------------------------
                         Flow       Avg       Max       Total         Total
                         Freq      Flow      Flow      Volume           TSS
  Outfall Node           Pcnt       CFS       CFS    10^6 gal           lbs
  -------------------------------------------------------------------------
  ZOF1                  99.75      2.81     11.47      12.657       765.930
  -------------------------------------------------------------------------
  System                99.75      2.81     11.47      12.657       765.930
  
  
  ********************
  Link Flow Summary
  ********************
  
  -----------------------------------------------------------------------------
                                 Maximum  Time of Max   Maximum    Max/    Max/
                                  |Flow|   Occurrence   |Veloc|    Full    Full
  Link                 Type          CFS  days hr:min    ft/sec    Flow   Depth
  -----------------------------------------------------------------------------
  C08                  CONDUIT      9.80     0  06:40     12.48    1.77    1.00
  C09                  CONDUIT     15.69     0  06:01     21.05    0.98    1.00
  C10                  CONDUIT      5.90     1  15:35      9.70    1.06    1.00
  C11                  CONDUIT      5.44     1  16:43      8.69    0.48    0.74
  C12                  CONDUIT      5.86     1  18:03      7.64    1.05    1.00
  C18                  CONDUIT      9.77     0  05:56     12.70    0.99    1.00
  C19                  CONDUIT      8.42     0  05:58     10.94    1.02    1.00
  C21                  CONDUIT     37.09     0  06:05     47.23    7.66    1.00
  C22                  CONDUIT     13.37     0  06:24     11.91    0.29    0.68
  C95-53307            CONDUIT     15.47     0  06:43      2.40    0.01    0.52
  OR34                 ORIFICE    101.07     0  06:05                          
  OR35                 ORIFICE     12.63     0  06:34                          
  OR36                 ORIFICE     13.06     0  07:57                          
  OR38                 ORIFICE     16.20     0  06:40                          
  OR39                 ORIFICE     18.63     0  06:43                          
  OR43                 ORIFICE     13.37     0  06:24                          
  OR44                 ORIFICE    145.43     0  06:05                          
  OR45                 ORIFICE     12.11     0  13:50                          
  OR46                 ORIFICE      5.44     1  16:43                          
  OR47                 ORIFICE      6.45     0  06:17                          
  OR48                 ORIFICE     11.47     0  08:07                          
  
  
  ***************************
  Flow Classification Summary
  ***************************
  
  -------------------------------------------------------------------------------------
                      Adjusted    ---------- Fraction of Time in Flow Class ---------- 
                       /Actual         Up    Down  Sub   Sup   Up    Down  Norm  Inlet 
  Conduit               Length    Dry  Dry   Dry   Crit  Crit  Crit  Crit  Ltd   Ctrl  
  -------------------------------------------------------------------------------------
  C08                     1.00   0.00  0.04  0.00  0.53  0.42  0.00  0.00  0.45  0.00
  C09                     1.00   0.00  0.01  0.00  0.92  0.07  0.00  0.00  0.97  0.00
  C10                     1.00   0.00  0.00  0.00  0.38  0.62  0.00  0.00  0.76  0.00
  C11                     1.00   0.00  0.00  0.00  0.03  0.96  0.00  0.00  1.00  0.00
  C12                     1.00   0.00  0.00  0.00  0.24  0.76  0.00  0.00  0.13  0.00
  C18                     1.00   0.00  0.00  0.00  0.99  0.01  0.00  0.00  0.16  0.00
  C19                     1.00   0.00  0.48  0.00  0.49  0.03  0.00  0.00  0.97  0.00
  C21                     1.00   0.00  0.00  0.00  0.56  0.43  0.00  0.00  0.08  0.00
  C22                     1.30   0.00  0.75  0.00  0.23  0.03  0.00  0.00  1.00  0.00
  C95-53307               1.00   0.00  0.12  0.00  0.87  0.01  0.00  0.00  0.99  0.00
  
  
  *************************
  Conduit Surcharge Summary
  *************************
  
  ----------------------------------------------------------------------------
                                                           Hours        Hours 
                         --------- Hours Full --------   Above Full   Capacity
  Conduit                Both Ends  Upstream  Dnstream   Normal Flow   Limited
  ----------------------------------------------------------------------------
  C08                         9.22      9.22     22.81      0.07         0.01
  C09                         0.97      0.97     41.51      0.01         0.01
  C10                        32.95     33.58     44.48      0.90         0.01
  C11                         0.01      0.01     47.37      0.01         0.01
  C12                        35.84     35.84     47.90      0.39         0.01
  C18                         1.01      1.01      4.01      0.01         0.01
  C19                         2.86      2.86      7.21      0.03         0.01
  C21                         6.01      6.01      7.65      0.44         0.01
  C22                         0.01      0.01      6.49      0.01         0.01
  
  
  ***************************
  Link Pollutant Load Summary
  ***************************
  
  ----------------------------------
                                 TSS
  Link                           lbs
  ----------------------------------
  C08                        133.078
  C09                        292.761
  C10                        419.909
  C11                        438.893
  C12                        431.964
  C18                         66.551
  C19                        144.420
  C21                        179.109
  C22                        133.883
  C95-53307                  322.232
  OR34                       165.581
  OR35                       193.730
  OR36                       332.648
  OR38                       306.303
  OR39                       450.724
  OR43                       133.790
  OR44                       405.306
  OR45                       767.422
  OR46                       438.853
  OR47                       455.361
  OR48                       765.930
  

  Analysis begun on:  Fri May 10 14:45:43 2024
  Analysis ended on:  Fri May 10 14:45:57 2024
  Total elapsed time: 00:00:14